/*--------------------------------*- C++ -*----------------------------------*\
  =========                 |
  \\      /  F ield         | OpenFOAM: The Open Source CFD Toolbox
   \\    /   O peration     | Website:  https://openfoam.org
    \\  /    A nd           | Version:  7  
     \\/     M anipulation  |
\*---------------------------------------------------------------------------*/
FoamFile
{
    version     2.0;
    format      ascii;
    class       dictionary;
    object      changeDictionaryDict;
}
// * * * * * * * * * * * * * * * * * * * * * * * * * * * * * * * * * * * * * //


T
{
    internalField   uniform 300;

    boundaryField
    {
        minY
        {
            type            fixedValue;
            value           uniform 300;
        }

        maxY
        {
            type            fixedValue;
            inletValue      uniform 300;
        }

        ".*"
        {
            type            zeroGradient;
            value           uniform 300;
        }

        "cylinder_to.*"
        {
            type            compressible::turbulentTemperatureCoupledBaffleMixed;
            Tnbr            T;
            kappaMethod     solidThermo;
            value           uniform 300;
        }
    }
}


p
{
    internalField   uniform 0;

    boundaryField
    {
        ".*"
        {
            type            calculated;
            value           uniform 0;
        }
    }
}

// ************************************************************************* //
